<?xml version="1.0" encoding="UTF-8"?>

<!-- generated on 2025-01-21 09:27:26 by Eclipse SUMO duarouter Version 1.19.0
<configuration xmlns:xsi="http://www.w3.org/2001/XMLSchema-instance" xsi:noNamespaceSchemaLocation="http://sumo.dlr.de/xsd/duarouterConfiguration.xsd">

    <input>
        <net-file value=".\export_test-v2-ADDsensors.net.xml"/>
        <route-files value=".\vClass.add.xml,.\odfile.odtrips.xml"/>
    </input>

    <output>
        <output-file value=".\route.rou.xml"/>
    </output>

</configuration>
-->

<routes xmlns:xsi="http://www.w3.org/2001/XMLSchema-instance" xsi:noNamespaceSchemaLocation="http://sumo.dlr.de/xsd/routes_file.xsd">
    <vType id="pc" length="5.00" maxSpeed="55.55" vClass="passenger" laneChangeModel="LC2013" lcStrategic="0" lcCooperative="1" lcSpeedGain="10" lcKeepRight="0" lcAssertive="1" lcOvertakeRight="0.9999" accel="2.6" decel="4.5" sigma="0.3"/>
    <vehicle id="pc63" type="pc" depart="0.79" departLane="free" departSpeed="max" fromTaz="1" toTaz="2">
        <route edges="29509614 29509616 850016856 4786686 617235609 967501799 875165551 967501797 1051034268 158623068 867251846 1086657605 736379744#0 736379744#1 875176335 617235612 850097347 967415399 967415391 850097346 41934018 41934019 27925163 617284138 27925176 848875024 967219593 152445757 28435619 114651107 961425260 848880997 854162451 961425259 123867453#0 123867453#1 261596718 940413279 967219591 967219590 947154918 617235594 967219592 124952169 961480495 961480494 392176863 28357702 28357703 28357716 28357717 28357728 392176862 544308817 392176861 28357727 942059757 27829313 768291604 1024493926 955977937 955977938 27829301 28358878 860655247 959075959 959075957 28358875 959075956 942086884 28358968 28358970 28359023 28359025 28359058 544296217 28359081 28359102 28359107 508115814 508115808 959075967 959075969 959075968 544296216 752127424 31559310 157805300 31559307 851550873 52286760 52286753 52284990 52284989 961140461 544299026 961140462 508115788 544299027 961140463 508115768 544299024 508115761 28413846 28413848 850616213 28378882 617284165 28378884#0 28378884#1 508115738 508115737 942206746 28464667 28464666 942095960 617284164 28588889 28588890 848818561 28396120 552389452 848809834 848809833 617284173 28396119 848470411 123867452 51383538 51383537 552389448 942205181 942205180"/>
    </vehicle>
    <vehicle id="pc283" type="pc" depart="2.83" departLane="free" departSpeed="max" fromTaz="1" toTaz="2">
        <route edges="29509614 29509616 850016856 4786686 617235609 967501799 875165551 967501797 1051034268 158623068 867251846 1086657605 736379744#0 736379744#1 875176335 617235612 850097347 967415399 967415391 850097346 41934018 41934019 27925163 617284138 27925176 848875024 967219593 152445757 28435619 114651107 961425260 848880997 854162451 961425259 123867453#0 123867453#1 261596718 940413279 967219591 967219590 947154918 617235594 967219592 124952169 961480495 961480494 392176863 28357702 28357703 28357716 28357717 28357728 392176862 544308817 392176861 28357727 942059757 27829313 768291604 1024493926 955977937 955977938 27829301 28358878 860655247 959075959 959075957 28358875 959075956 942086884 28358968 28358970 28359023 28359025 28359058 544296217 28359081 28359102 28359107 508115814 508115808 959075967 959075969 959075968 544296216 752127424 31559310 157805300 31559307 851550873 52286760 52286753 52284990 52284989 961140461 544299026 961140462 508115788 544299027 961140463 508115768 544299024 508115761 28413846 28413848 850616213 28378882 617284165 28378884#0 28378884#1 508115738 508115737 942206746 28464667 28464666 942095960 617284164 28588889 28588890 848818561 28396120 552389452 848809834 848809833 617284173 28396119 848470411 123867452 51383538 51383537 552389448 942205181 942205180"/>
    </vehicle>
    <vehicle id="pc519" type="pc" depart="4.77" departLane="free" departSpeed="max" fromTaz="1" toTaz="2">
        <route edges="29509614 29509616 850016856 4786686 617235609 967501799 875165551 967501797 1051034268 158623068 867251846 1086657605 736379744#0 736379744#1 875176335 617235612 850097347 967415399 967415391 850097346 41934018 41934019 27925163 617284138 27925176 848875024 967219593 152445757 28435619 114651107 961425260 848880997 854162451 961425259 123867453#0 123867453#1 261596718 940413279 967219591 967219590 947154918 617235594 967219592 124952169 961480495 961480494 392176863 28357702 28357703 28357716 28357717 28357728 392176862 544308817 392176861 28357727 942059757 27829313 768291604 1024493926 955977937 955977938 27829301 28358878 860655247 959075959 959075957 28358875 959075956 942086884 28358968 28358970 28359023 28359025 28359058 544296217 28359081 28359102 28359107 508115814 508115808 959075967 959075969 959075968 544296216 752127424 31559310 157805300 31559307 851550873 52286760 52286753 52284990 52284989 961140461 544299026 961140462 508115788 544299027 961140463 508115768 544299024 508115761 28413846 28413848 850616213 28378882 617284165 28378884#0 28378884#1 508115738 508115737 942206746 28464667 28464666 942095960 617284164 28588889 28588890 848818561 28396120 552389452 848809834 848809833 617284173 28396119 848470411 123867452 51383538 51383537 552389448 942205181 942205180"/>
    </vehicle>
    <vehicle id="pc245" type="pc" depart="11.12" departLane="free" departSpeed="max" fromTaz="1" toTaz="2">
        <route edges="29509614 29509616 850016856 4786686 617235609 967501799 875165551 967501797 1051034268 158623068 867251846 1086657605 736379744#0 736379744#1 875176335 617235612 850097347 967415399 967415391 850097346 41934018 41934019 27925163 617284138 27925176 848875024 967219593 152445757 28435619 114651107 961425260 848880997 854162451 961425259 123867453#0 123867453#1 261596718 940413279 967219591 967219590 947154918 617235594 967219592 124952169 961480495 961480494 392176863 28357702 28357703 28357716 28357717 28357728 392176862 544308817 392176861 28357727 942059757 27829313 768291604 1024493926 955977937 955977938 27829301 28358878 860655247 959075959 959075957 28358875 959075956 942086884 28358968 28358970 28359023 28359025 28359058 544296217 28359081 28359102 28359107 508115814 508115808 959075967 959075969 959075968 544296216 752127424 31559310 157805300 31559307 851550873 52286760 52286753 52284990 52284989 961140461 544299026 961140462 508115788 544299027 961140463 508115768 544299024 508115761 28413846 28413848 850616213 28378882 617284165 28378884#0 28378884#1 508115738 508115737 942206746 28464667 28464666 942095960 617284164 28588889 28588890 848818561 28396120 552389452 848809834 848809833 617284173 28396119 848470411 123867452 51383538 51383537 552389448 942205181 942205180"/>
    </vehicle>
    <vehicle id="pc1351" type="pc" depart="16.08" departLane="free" departSpeed="max" fromTaz="1" toTaz="2">
        <route edges="29509614 29509616 850016856 4786686 617235609 967501799 875165551 967501797 1051034268 158623068 867251846 1086657605 736379744#0 736379744#1 875176335 617235612 850097347 967415399 967415391 850097346 41934018 41934019 27925163 617284138 27925176 848875024 967219593 152445757 28435619 114651107 961425260 848880997 854162451 961425259 123867453#0 123867453#1 261596718 940413279 967219591 967219590 947154918 617235594 967219592 124952169 961480495 961480494 392176863 28357702 28357703 28357716 28357717 28357728 392176862 544308817 392176861 28357727 942059757 27829313 768291604 1024493926 955977937 955977938 27829301 28358878 860655247 959075959 959075957 28358875 959075956 942086884 28358968 28358970 28359023 28359025 28359058 544296217 28359081 28359102 28359107 508115814 508115808 959075967 959075969 959075968 544296216 752127424 31559310 157805300 31559307 851550873 52286760 52286753 52284990 52284989 961140461 544299026 961140462 508115788 544299027 961140463 508115768 544299024 508115761 28413846 28413848 850616213 28378882 617284165 28378884#0 28378884#1 508115738 508115737 942206746 28464667 28464666 942095960 617284164 28588889 28588890 848818561 28396120 552389452 848809834 848809833 617284173 28396119 848470411 123867452 51383538 51383537 552389448 942205181 942205180"/>
    </vehicle>
    <vehicle id="pc88" type="pc" depart="16.72" departLane="free" departSpeed="max" fromTaz="1" toTaz="2">
        <route edges="29509614 29509616 850016856 4786686 617235609 967501799 875165551 967501797 1051034268 158623068 867251846 1086657605 736379744#0 736379744#1 875176335 617235612 850097347 967415399 967415391 850097346 41934018 41934019 27925163 617284138 27925176 848875024 967219593 152445757 28435619 114651107 961425260 848880997 854162451 961425259 123867453#0 123867453#1 261596718 940413279 967219591 967219590 947154918 617235594 967219592 124952169 961480495 961480494 392176863 28357702 28357703 28357716 28357717 28357728 392176862 544308817 392176861 28357727 942059757 27829313 768291604 1024493926 955977937 955977938 27829301 28358878 860655247 959075959 959075957 28358875 959075956 942086884 28358968 28358970 28359023 28359025 28359058 544296217 28359081 28359102 28359107 508115814 508115808 959075967 959075969 959075968 544296216 752127424 31559310 157805300 31559307 851550873 52286760 52286753 52284990 52284989 961140461 544299026 961140462 508115788 544299027 961140463 508115768 544299024 508115761 28413846 28413848 850616213 28378882 617284165 28378884#0 28378884#1 508115738 508115737 942206746 28464667 28464666 942095960 617284164 28588889 28588890 848818561 28396120 552389452 848809834 848809833 617284173 28396119 848470411 123867452 51383538 51383537 552389448 942205181 942205180"/>
    </vehicle>
    <vehicle id="pc9" type="pc" depart="18.39" departLane="free" departSpeed="max" fromTaz="1" toTaz="2">
        <route edges="29509614 29509616 850016856 4786686 617235609 967501799 875165551 967501797 1051034268 158623068 867251846 1086657605 736379744#0 736379744#1 875176335 617235612 850097347 967415399 967415391 850097346 41934018 41934019 27925163 617284138 27925176 848875024 967219593 152445757 28435619 114651107 961425260 848880997 854162451 961425259 123867453#0 123867453#1 261596718 940413279 967219591 967219590 947154918 617235594 967219592 124952169 961480495 961480494 392176863 28357702 28357703 28357716 28357717 28357728 392176862 544308817 392176861 28357727 942059757 27829313 768291604 1024493926 955977937 955977938 27829301 28358878 860655247 959075959 959075957 28358875 959075956 942086884 28358968 28358970 28359023 28359025 28359058 544296217 28359081 28359102 28359107 508115814 508115808 959075967 959075969 959075968 544296216 752127424 31559310 157805300 31559307 851550873 52286760 52286753 52284990 52284989 961140461 544299026 961140462 508115788 544299027 961140463 508115768 544299024 508115761 28413846 28413848 850616213 28378882 617284165 28378884#0 28378884#1 508115738 508115737 942206746 28464667 28464666 942095960 617284164 28588889 28588890 848818561 28396120 552389452 848809834 848809833 617284173 28396119 848470411 123867452 51383538 51383537 552389448 942205181 942205180"/>
    </vehicle>
    <vehicle id="pc749" type="pc" depart="18.97" departLane="free" departSpeed="max" fromTaz="1" toTaz="2">
        <route edges="29509614 29509616 850016856 4786686 617235609 967501799 875165551 967501797 1051034268 158623068 867251846 1086657605 736379744#0 736379744#1 875176335 617235612 850097347 967415399 967415391 850097346 41934018 41934019 27925163 617284138 27925176 848875024 967219593 152445757 28435619 114651107 961425260 848880997 854162451 961425259 123867453#0 123867453#1 261596718 940413279 967219591 967219590 947154918 617235594 967219592 124952169 961480495 961480494 392176863 28357702 28357703 28357716 28357717 28357728 392176862 544308817 392176861 28357727 942059757 27829313 768291604 1024493926 955977937 955977938 27829301 28358878 860655247 959075959 959075957 28358875 959075956 942086884 28358968 28358970 28359023 28359025 28359058 544296217 28359081 28359102 28359107 508115814 508115808 959075967 959075969 959075968 544296216 752127424 31559310 157805300 31559307 851550873 52286760 52286753 52284990 52284989 961140461 544299026 961140462 508115788 544299027 961140463 508115768 544299024 508115761 28413846 28413848 850616213 28378882 617284165 28378884#0 28378884#1 508115738 508115737 942206746 28464667 28464666 942095960 617284164 28588889 28588890 848818561 28396120 552389452 848809834 848809833 617284173 28396119 848470411 123867452 51383538 51383537 552389448 942205181 942205180"/>
    </vehicle>
    <vehicle id="pc412" type="pc" depart="19.61" departLane="free" departSpeed="max" fromTaz="1" toTaz="2">
        <route edges="29509614 29509616 850016856 4786686 617235609 967501799 875165551 967501797 1051034268 158623068 867251846 1086657605 736379744#0 736379744#1 875176335 617235612 850097347 967415399 967415391 850097346 41934018 41934019 27925163 617284138 27925176 848875024 967219593 152445757 28435619 114651107 961425260 848880997 854162451 961425259 123867453#0 123867453#1 261596718 940413279 967219591 967219590 947154918 617235594 967219592 124952169 961480495 961480494 392176863 28357702 28357703 28357716 28357717 28357728 392176862 544308817 392176861 28357727 942059757 27829313 768291604 1024493926 955977937 955977938 27829301 28358878 860655247 959075959 959075957 28358875 959075956 942086884 28358968 28358970 28359023 28359025 28359058 544296217 28359081 28359102 28359107 508115814 508115808 959075967 959075969 959075968 544296216 752127424 31559310 157805300 31559307 851550873 52286760 52286753 52284990 52284989 961140461 544299026 961140462 508115788 544299027 961140463 508115768 544299024 508115761 28413846 28413848 850616213 28378882 617284165 28378884#0 28378884#1 508115738 508115737 942206746 28464667 28464666 942095960 617284164 28588889 28588890 848818561 28396120 552389452 848809834 848809833 617284173 28396119 848470411 123867452 51383538 51383537 552389448 942205181 942205180"/>
    </vehicle>
    <vehicle id="pc1397" type="pc" depart="22.82" departLane="free" departSpeed="max" fromTaz="1" toTaz="2">
        <route edges="29509614 29509616 850016856 4786686 617235609 967501799 875165551 967501797 1051034268 158623068 867251846 1086657605 736379744#0 736379744#1 875176335 617235612 850097347 967415399 967415391 850097346 41934018 41934019 27925163 617284138 27925176 848875024 967219593 152445757 28435619 114651107 961425260 848880997 854162451 961425259 123867453#0 123867453#1 261596718 940413279 967219591 967219590 947154918 617235594 967219592 124952169 961480495 961480494 392176863 28357702 28357703 28357716 28357717 28357728 392176862 544308817 392176861 28357727 942059757 27829313 768291604 1024493926 955977937 955977938 27829301 28358878 860655247 959075959 959075957 28358875 959075956 942086884 28358968 28358970 28359023 28359025 28359058 544296217 28359081 28359102 28359107 508115814 508115808 959075967 959075969 959075968 544296216 752127424 31559310 157805300 31559307 851550873 52286760 52286753 52284990 52284989 961140461 544299026 961140462 508115788 544299027 961140463 508115768 544299024 508115761 28413846 28413848 850616213 28378882 617284165 28378884#0 28378884#1 508115738 508115737 942206746 28464667 28464666 942095960 617284164 28588889 28588890 848818561 28396120 552389452 848809834 848809833 617284173 28396119 848470411 123867452 51383538 51383537 552389448 942205181 942205180"/>
    </vehicle>
    <vehicle id="pc391" type="pc" depart="23.05" departLane="free" departSpeed="max" fromTaz="1" toTaz="2">
        <route edges="29509614 29509616 850016856 4786686 617235609 967501799 875165551 967501797 1051034268 158623068 867251846 1086657605 736379744#0 736379744#1 875176335 617235612 850097347 967415399 967415391 850097346 41934018 41934019 27925163 617284138 27925176 848875024 967219593 152445757 28435619 114651107 961425260 848880997 854162451 961425259 123867453#0 123867453#1 261596718 940413279 967219591 967219590 947154918 617235594 967219592 124952169 961480495 961480494 392176863 28357702 28357703 28357716 28357717 28357728 392176862 544308817 392176861 28357727 942059757 27829313 768291604 1024493926 955977937 955977938 27829301 28358878 860655247 959075959 959075957 28358875 959075956 942086884 28358968 28358970 28359023 28359025 28359058 544296217 28359081 28359102 28359107 508115814 508115808 959075967 959075969 959075968 544296216 752127424 31559310 157805300 31559307 851550873 52286760 52286753 52284990 52284989 961140461 544299026 961140462 508115788 544299027 961140463 508115768 544299024 508115761 28413846 28413848 850616213 28378882 617284165 28378884#0 28378884#1 508115738 508115737 942206746 28464667 28464666 942095960 617284164 28588889 28588890 848818561 28396120 552389452 848809834 848809833 617284173 28396119 848470411 123867452 51383538 51383537 552389448 942205181 942205180"/>
    </vehicle>
    <vehicle id="pc1144" type="pc" depart="23.89" departLane="free" departSpeed="max" fromTaz="1" toTaz="2">
        <route edges="29509614 29509616 850016856 4786686 617235609 967501799 875165551 967501797 1051034268 158623068 867251846 1086657605 736379744#0 736379744#1 875176335 617235612 850097347 967415399 967415391 850097346 41934018 41934019 27925163 617284138 27925176 848875024 967219593 152445757 28435619 114651107 961425260 848880997 854162451 961425259 123867453#0 123867453#1 261596718 940413279 967219591 967219590 947154918 617235594 967219592 124952169 961480495 961480494 392176863 28357702 28357703 28357716 28357717 28357728 392176862 544308817 392176861 28357727 942059757 27829313 768291604 1024493926 955977937 955977938 27829301 28358878 860655247 959075959 959075957 28358875 959075956 942086884 28358968 28358970 28359023 28359025 28359058 544296217 28359081 28359102 28359107 508115814 508115808 959075967 959075969 959075968 544296216 752127424 31559310 157805300 31559307 851550873 52286760 52286753 52284990 52284989 961140461 544299026 961140462 508115788 544299027 961140463 508115768 544299024 508115761 28413846 28413848 850616213 28378882 617284165 28378884#0 28378884#1 508115738 508115737 942206746 28464667 28464666 942095960 617284164 28588889 28588890 848818561 28396120 552389452 848809834 848809833 617284173 28396119 848470411 123867452 51383538 51383537 552389448 942205181 942205180"/>
    </vehicle>
    <vehicle id="pc1428" type="pc" depart="24.44" departLane="free" departSpeed="max" fromTaz="1" toTaz="2">
        <route edges="29509614 29509616 850016856 4786686 617235609 967501799 875165551 967501797 1051034268 158623068 867251846 1086657605 736379744#0 736379744#1 875176335 617235612 850097347 967415399 967415391 850097346 41934018 41934019 27925163 617284138 27925176 848875024 967219593 152445757 28435619 114651107 961425260 848880997 854162451 961425259 123867453#0 123867453#1 261596718 940413279 967219591 967219590 947154918 617235594 967219592 124952169 961480495 961480494 392176863 28357702 28357703 28357716 28357717 28357728 392176862 544308817 392176861 28357727 942059757 27829313 768291604 1024493926 955977937 955977938 27829301 28358878 860655247 959075959 959075957 28358875 959075956 942086884 28358968 28358970 28359023 28359025 28359058 544296217 28359081 28359102 28359107 508115814 508115808 959075967 959075969 959075968 544296216 752127424 31559310 157805300 31559307 851550873 52286760 52286753 52284990 52284989 961140461 544299026 961140462 508115788 544299027 961140463 508115768 544299024 508115761 28413846 28413848 850616213 28378882 617284165 28378884#0 28378884#1 508115738 508115737 942206746 28464667 28464666 942095960 617284164 28588889 28588890 848818561 28396120 552389452 848809834 848809833 617284173 28396119 848470411 123867452 51383538 51383537 552389448 942205181 942205180"/>
    </vehicle>
    <vehicle id="pc1387" type="pc" depart="32.14" departLane="free" departSpeed="max" fromTaz="1" toTaz="2">
        <route edges="29509614 29509616 850016856 4786686 617235609 967501799 875165551 967501797 1051034268 158623068 867251846 1086657605 736379744#0 736379744#1 875176335 617235612 850097347 967415399 967415391 850097346 41934018 41934019 27925163 617284138 27925176 848875024 967219593 152445757 28435619 114651107 961425260 848880997 854162451 961425259 123867453#0 123867453#1 261596718 940413279 967219591 967219590 947154918 617235594 967219592 124952169 961480495 961480494 392176863 28357702 28357703 28357716 28357717 28357728 392176862 544308817 392176861 28357727 942059757 27829313 768291604 1024493926 955977937 955977938 27829301 28358878 860655247 959075959 959075957 28358875 959075956 942086884 28358968 28358970 28359023 28359025 28359058 544296217 28359081 28359102 28359107 508115814 508115808 959075967 959075969 959075968 544296216 752127424 31559310 157805300 31559307 851550873 52286760 52286753 52284990 52284989 961140461 544299026 961140462 508115788 544299027 961140463 508115768 544299024 508115761 28413846 28413848 850616213 28378882 617284165 28378884#0 28378884#1 508115738 508115737 942206746 28464667 28464666 942095960 617284164 28588889 28588890 848818561 28396120 552389452 848809834 848809833 617284173 28396119 848470411 123867452 51383538 51383537 552389448 942205181 942205180"/>
    </vehicle>
    <vehicle id="pc1289" type="pc" depart="36.35" departLane="free" departSpeed="max" fromTaz="1" toTaz="2">
        <route edges="29509614 29509616 850016856 4786686 617235609 967501799 875165551 967501797 1051034268 158623068 867251846 1086657605 736379744#0 736379744#1 875176335 617235612 850097347 967415399 967415391 850097346 41934018 41934019 27925163 617284138 27925176 848875024 967219593 152445757 28435619 114651107 961425260 848880997 854162451 961425259 123867453#0 123867453#1 261596718 940413279 967219591 967219590 947154918 617235594 967219592 124952169 961480495 961480494 392176863 28357702 28357703 28357716 28357717 28357728 392176862 544308817 392176861 28357727 942059757 27829313 768291604 1024493926 955977937 955977938 27829301 28358878 860655247 959075959 959075957 28358875 959075956 942086884 28358968 28358970 28359023 28359025 28359058 544296217 28359081 28359102 28359107 508115814 508115808 959075967 959075969 959075968 544296216 752127424 31559310 157805300 31559307 851550873 52286760 52286753 52284990 52284989 961140461 544299026 961140462 508115788 544299027 961140463 508115768 544299024 508115761 28413846 28413848 850616213 28378882 617284165 28378884#0 28378884#1 508115738 508115737 942206746 28464667 28464666 942095960 617284164 28588889 28588890 848818561 28396120 552389452 848809834 848809833 617284173 28396119 848470411 123867452 51383538 51383537 552389448 942205181 942205180"/>
    </vehicle>
    <vehicle id="pc198" type="pc" depart="36.86" departLane="free" departSpeed="max" fromTaz="1" toTaz="2">
        <route edges="29509614 29509616 850016856 4786686 617235609 967501799 875165551 967501797 1051034268 158623068 867251846 1086657605 736379744#0 736379744#1 875176335 617235612 850097347 967415399 967415391 850097346 41934018 41934019 27925163 617284138 27925176 848875024 967219593 152445757 28435619 114651107 961425260 848880997 854162451 961425259 123867453#0 123867453#1 261596718 940413279 967219591 967219590 947154918 617235594 967219592 124952169 961480495 961480494 392176863 28357702 28357703 28357716 28357717 28357728 392176862 544308817 392176861 28357727 942059757 27829313 768291604 1024493926 955977937 955977938 27829301 28358878 860655247 959075959 959075957 28358875 959075956 942086884 28358968 28358970 28359023 28359025 28359058 544296217 28359081 28359102 28359107 508115814 508115808 959075967 959075969 959075968 544296216 752127424 31559310 157805300 31559307 851550873 52286760 52286753 52284990 52284989 961140461 544299026 961140462 508115788 544299027 961140463 508115768 544299024 508115761 28413846 28413848 850616213 28378882 617284165 28378884#0 28378884#1 508115738 508115737 942206746 28464667 28464666 942095960 617284164 28588889 28588890 848818561 28396120 552389452 848809834 848809833 617284173 28396119 848470411 123867452 51383538 51383537 552389448 942205181 942205180"/>
    </vehicle>
    <vehicle id="pc526" type="pc" depart="37.70" departLane="free" departSpeed="max" fromTaz="1" toTaz="2">
        <route edges="29509614 29509616 850016856 4786686 617235609 967501799 875165551 967501797 1051034268 158623068 867251846 1086657605 736379744#0 736379744#1 875176335 617235612 850097347 967415399 967415391 850097346 41934018 41934019 27925163 617284138 27925176 848875024 967219593 152445757 28435619 114651107 961425260 848880997 854162451 961425259 123867453#0 123867453#1 261596718 940413279 967219591 967219590 947154918 617235594 967219592 124952169 961480495 961480494 392176863 28357702 28357703 28357716 28357717 28357728 392176862 544308817 392176861 28357727 942059757 27829313 768291604 1024493926 955977937 955977938 27829301 28358878 860655247 959075959 959075957 28358875 959075956 942086884 28358968 28358970 28359023 28359025 28359058 544296217 28359081 28359102 28359107 508115814 508115808 959075967 959075969 959075968 544296216 752127424 31559310 157805300 31559307 851550873 52286760 52286753 52284990 52284989 961140461 544299026 961140462 508115788 544299027 961140463 508115768 544299024 508115761 28413846 28413848 850616213 28378882 617284165 28378884#0 28378884#1 508115738 508115737 942206746 28464667 28464666 942095960 617284164 28588889 28588890 848818561 28396120 552389452 848809834 848809833 617284173 28396119 848470411 123867452 51383538 51383537 552389448 942205181 942205180"/>
    </vehicle>
    <vehicle id="pc142" type="pc" depart="39.03" departLane="free" departSpeed="max" fromTaz="1" toTaz="2">
        <route edges="29509614 29509616 850016856 4786686 617235609 967501799 875165551 967501797 1051034268 158623068 867251846 1086657605 736379744#0 736379744#1 875176335 617235612 850097347 967415399 967415391 850097346 41934018 41934019 27925163 617284138 27925176 848875024 967219593 152445757 28435619 114651107 961425260 848880997 854162451 961425259 123867453#0 123867453#1 261596718 940413279 967219591 967219590 947154918 617235594 967219592 124952169 961480495 961480494 392176863 28357702 28357703 28357716 28357717 28357728 392176862 544308817 392176861 28357727 942059757 27829313 768291604 1024493926 955977937 955977938 27829301 28358878 860655247 959075959 959075957 28358875 959075956 942086884 28358968 28358970 28359023 28359025 28359058 544296217 28359081 28359102 28359107 508115814 508115808 959075967 959075969 959075968 544296216 752127424 31559310 157805300 31559307 851550873 52286760 52286753 52284990 52284989 961140461 544299026 961140462 508115788 544299027 961140463 508115768 544299024 508115761 28413846 28413848 850616213 28378882 617284165 28378884#0 28378884#1 508115738 508115737 942206746 28464667 28464666 942095960 617284164 28588889 28588890 848818561 28396120 552389452 848809834 848809833 617284173 28396119 848470411 123867452 51383538 51383537 552389448 942205181 942205180"/>
    </vehicle>
    <vehicle id="pc1416" type="pc" depart="44.99" departLane="free" departSpeed="max" fromTaz="1" toTaz="2">
        <route edges="29509614 29509616 850016856 4786686 617235609 967501799 875165551 967501797 1051034268 158623068 867251846 1086657605 736379744#0 736379744#1 875176335 617235612 850097347 967415399 967415391 850097346 41934018 41934019 27925163 617284138 27925176 848875024 967219593 152445757 28435619 114651107 961425260 848880997 854162451 961425259 123867453#0 123867453#1 261596718 940413279 967219591 967219590 947154918 617235594 967219592 124952169 961480495 961480494 392176863 28357702 28357703 28357716 28357717 28357728 392176862 544308817 392176861 28357727 942059757 27829313 768291604 1024493926 955977937 955977938 27829301 28358878 860655247 959075959 959075957 28358875 959075956 942086884 28358968 28358970 28359023 28359025 28359058 544296217 28359081 28359102 28359107 508115814 508115808 959075967 959075969 959075968 544296216 752127424 31559310 157805300 31559307 851550873 52286760 52286753 52284990 52284989 961140461 544299026 961140462 508115788 544299027 961140463 508115768 544299024 508115761 28413846 28413848 850616213 28378882 617284165 28378884#0 28378884#1 508115738 508115737 942206746 28464667 28464666 942095960 617284164 28588889 28588890 848818561 28396120 552389452 848809834 848809833 617284173 28396119 848470411 123867452 51383538 51383537 552389448 942205181 942205180"/>
    </vehicle>
    <vehicle id="pc571" type="pc" depart="46.90" departLane="free" departSpeed="max" fromTaz="1" toTaz="2">
        <route edges="29509614 29509616 850016856 4786686 617235609 967501799 875165551 967501797 1051034268 158623068 867251846 1086657605 736379744#0 736379744#1 875176335 617235612 850097347 967415399 967415391 850097346 41934018 41934019 27925163 617284138 27925176 848875024 967219593 152445757 28435619 114651107 961425260 848880997 854162451 961425259 123867453#0 123867453#1 261596718 940413279 967219591 967219590 947154918 617235594 967219592 124952169 961480495 961480494 392176863 28357702 28357703 28357716 28357717 28357728 392176862 544308817 392176861 28357727 942059757 27829313 768291604 1024493926 955977937 955977938 27829301 28358878 860655247 959075959 959075957 28358875 959075956 942086884 28358968 28358970 28359023 28359025 28359058 544296217 28359081 28359102 28359107 508115814 508115808 959075967 959075969 959075968 544296216 752127424 31559310 157805300 31559307 851550873 52286760 52286753 52284990 52284989 961140461 544299026 961140462 508115788 544299027 961140463 508115768 544299024 508115761 28413846 28413848 850616213 28378882 617284165 28378884#0 28378884#1 508115738 508115737 942206746 28464667 28464666 942095960 617284164 28588889 28588890 848818561 28396120 552389452 848809834 848809833 617284173 28396119 848470411 123867452 51383538 51383537 552389448 942205181 942205180"/>
    </vehicle>
    <vehicle id="pc772" type="pc" depart="47.95" departLane="free" departSpeed="max" fromTaz="1" toTaz="2">