<?xml version="1.0" encoding="UTF-8"?>

<!-- generated on 2024-10-17 17:56:26 by Eclipse SUMO netedit Version v1_15_0+3072-a493b9138de
-->

<additional xmlns:xsi="http://www.w3.org/2001/XMLSchema-instance" xsi:noNamespaceSchemaLocation="http://sumo.dlr.de/xsd/additional_file.xsd">
    <!-- Detectors -->
    <inductionLoop id="detector_1" lane="edge_1_1" pos="46.45" period="300.00" file="e1_0.xml"/>
    <inductionLoop id="detector_2" lane="edge_1_0" pos="46.45" period="300.00" file="e1_1.xml"/>
</additional>
